/*--------------------------------*- C++ -*----------------------------------*\
| =========                 |                                                 |
| \\      /  F ield         | OpenFOAM: The Open Source CFD Toolbox           |
|  \\    /   O peration     | Version:  v1912                                 |
|   \\  /    A nd           | Website:  www.openfoam.com                      |
|    \\/     M anipulation  |                                                 |
\*---------------------------------------------------------------------------*/
FoamFile
{
    version     2.0;
    format      ascii;
    class       dictionary;
    location    "system";
    object      fvSolution;
}
// * * * * * * * * * * * * * * * * * * * * * * * * * * * * * * * * * * * * * //

solvers
{
    p
    {
        solver                    GAMG;
        smoother                  !smoother!;
        tolerance                 !tolerance!;
        relTol                    !relTol!;
        cacheAgglomeration        !cacheAgglomeration!;
        nCellsInCoarsestLevel     !nCellsInCoarsestLevel!;
        processorAgglomerator     !processorAgglomerator!;
        nPreSweeps                !nPreSweeps!;
        preSweepsLevelMultiplier  !preSweepsLevelMultiplier!;
        maxPreSweeps              !maxPreSweeps!;
        nPostSweeps               !nPostSweeps!;
        postSweepsLevelMultiplier !postSweepsLevelMultiplier!;
        maxPostSweeps             !maxPostSweeps!;
        nFinestSweeps             !nFinestSweeps!;
        interpolateCorrection     !interpolateCorrection!;
        scaleCorrection           !scaleCorrection!;
        directSolveCoarsest       !directSolveCoarsest!;
        coarsestLevelCorr
        {
            solver          !solverCoarsest!;
            preconditioner  !preconditionerCoarsest!;
            tolerance       !toleranceCoarsest!;
            relTol          !relTolCoarsest!;
        }
    }

    pFinal
    {
        $p;
        relTol          0;
    }

    U
    {
        solver          smoothSolver;
        smoother        symGaussSeidel;
        tolerance       1e-06;
        relTol          0.1;
    }

    UFinal
    {
        $U;
        relTol          0;
    }

    Phi
    {
        $p;
    }
}

potentialFlow
{
    nNonOrthogonalCorrectors 10;
}

PIMPLE
{
    momentumPredictor   yes;
    transonic           no;
    nOuterCorrectors    50;
    nCorrectors         1;
    nNonOrthogonalCorrectors 1;
    consistent          yes;

    residualControl
    {
        "(U|p)"
        {
            relTol          0;
            tolerance       1e-05;
        }
    }
}


// ************************************************************************* //
